*HEADING
cubit(s/MSP_toroidal_membrane/mesh/mesh_files_trials/2d_new.inp): 07/09/2018: 11
version: 13.1
**
********************************** P A R T S **********************************
*PART, NAME=Part-Default
**
********************************** N O D E S **********************************
*NODE, NSET=ALLNODES
       1,    6.414214e-01,    1.414214e-01
       2,    6.378858e-01,    1.378858e-01
       3,    6.688750e-01,    9.750000e-02
       4,    6.732051e-01,    1.000000e-01
       5,    6.883555e-01,    5.046971e-02
       6,    6.931852e-01,    5.176381e-02
       7,    6.950000e-01,    0.000000e+00
       8,    7.000000e-01,    0.000000e+00
       9,    6.883555e-01,   -5.046971e-02
      10,    6.931852e-01,   -5.176381e-02
      11,    6.688750e-01,   -9.750000e-02
      12,    6.732051e-01,   -1.000000e-01
      13,    6.378858e-01,   -1.378858e-01
      14,    6.414214e-01,   -1.414214e-01
      15,    6.000000e-01,    1.732051e-01
      16,    5.975000e-01,    1.688750e-01
      17,    5.517638e-01,    1.931852e-01
      18,    5.504697e-01,    1.883555e-01
      19,    5.000000e-01,    2.000000e-01
      20,    5.000000e-01,    1.950000e-01
** ... 1843 like lines cut
**
********************************** E L E M E N T S ****************************
*ELEMENT, TYPE=S4R, ELSET=EB1
       1,       1,       2,       3,       4
       2,       4,       3,       5,       6
       3,       6,       5,       7,       8
       4,       8,       7,       9,      10
       5,      10,       9,      11,      12
       6,      12,      11,      13,      14
       7,       2,       1,      15,      16
       8,      16,      15,      17,      18
       9,      18,      17,      19,      20
      10,      20,      19,      21,      22
      11,      22,      21,      23,      24
      12,      24,      23,      25,      26
      13,      27,      28,      29,      30
      14,      30,      29,      31,      32
      15,      32,      31,      33,      34
      16,      34,      33,      35,      36
      17,      36,      35,      37,      38
      18,      38,      37,      26,      25
      19,      28,      27,      39,      40
      20,      40,      39,      41,      42
** ... 4 like lines cut
*ELEMENT, TYPE=S4R, ELSET=EB2
      25,      49,      50,      51,      52
      26,      50,      53,      54,      51
      27,      53,      55,      56,      54
      28,      55,      57,      58,      56
      29,      57,      59,      60,      58
      30,      59,      61,      62,      60
      31,      61,      63,      64,      62
      32,      63,      65,      66,      64
      33,      65,      67,      68,      66
      34,      67,      69,      70,      68
      35,      69,      71,      72,      70
      36,      71,      73,      74,      72
      37,      73,      75,      76,      74
      38,      75,      77,      78,      76
      39,      77,      79,      80,      78
      40,      79,      81,      82,      80
      41,      81,      83,      84,      82
      42,      83,      85,      86,      84
      43,      85,      87,      88,      86
      44,      87,      89,      90,      88
** ... 1740 like lines cut
**
********************************** P R O P E R T I E S ************************
*SHELL SECTION, ELSET=EB1, SECTION INTEGRATION=SIMPSON, MATERIAL=Default-Steel
1.000000e+00
*SHELL SECTION, ELSET=EB2, SECTION INTEGRATION=SIMPSON, MATERIAL=Default-Steel
1.000000e+00
**
*END PART
**
**
**
********************************** E N D   P A R T S **********************************
**
**
********************************** A S S E M B L Y ************************************
**
*ASSEMBLY, NAME=ASSEMBLY1
**
*INSTANCE, NAME=Part-Default_1, PART=Part-Default
*END INSTANCE
**
*END ASSEMBLY
**
**
**
*MATERIAL, NAME = Default-Steel
*ELASTIC, TYPE=ISOTROPIC
2.068000e+05, 2.900000e-01
*DENSITY
7.000000e-06
*CONDUCTIVITY,TYPE=ISO
4.500000e-02
*SPECIFIC HEAT
5.000000e+02
**
**
************************************** H I S T O R Y *************************************
**
*PREPRINT
**
**************************************** S T E P 1 ***************************************
*STEP,INC=100,NAME=Default Set
**
*STATIC
1, 1, 1e-05, 1
**
**
**
**
*END STEP
