*HEADING
cubit(ster-Thesis/MSP_toroidal_membrane/mesh/crisfield_beam.inp): 12/10/2018: 11
version: 13.1
**
********************************** P A R T S **********************************
*PART, NAME=Part-Default
**
********************************** N O D E S **********************************
*NODE, NSET=ALLNODES
       1,    0.000000e+00,    1.000000e+02
       2,    2.094233e+00,    9.997807e+01
       3,    2.115176e+00,    1.009778e+02
       4,    0.000000e+00,    1.010000e+02
       5,    4.187547e+00,    9.991228e+01
       6,    4.229424e+00,    1.009114e+02
       7,    6.279024e+00,    9.980267e+01
       8,    6.341816e+00,    1.008007e+02
       9,    8.367748e+00,    9.964929e+01
      10,    8.451428e+00,    1.006458e+02
      11,    1.045280e+01,    9.945219e+01
      12,    1.055733e+01,    1.004467e+02
      13,    1.253327e+01,    9.921148e+01
      14,    1.265860e+01,    1.002036e+02
      15,    1.460824e+01,    9.892724e+01
      16,    1.475433e+01,    9.991651e+01
      17,    1.667680e+01,    9.859962e+01
      18,    1.684357e+01,    9.958561e+01
      19,    1.873805e+01,    9.822874e+01
      20,    1.892544e+01,    9.921103e+01
** ... 84 like lines cut
**
********************************** E L E M E N T S ****************************
*ELEMENT, TYPE=S4R, ELSET=EB1
       1,       1,       2,       3,       4
       2,       2,       5,       6,       3
       3,       5,       7,       8,       6
       4,       7,       9,      10,       8
       5,       9,      11,      12,      10
       6,      11,      13,      14,      12
       7,      13,      15,      16,      14
       8,      15,      17,      18,      16
       9,      17,      19,      20,      18
      10,      19,      21,      22,      20
      11,      21,      23,      24,      22
      12,      23,      25,      26,      24
      13,      25,      27,      28,      26
      14,      27,      29,      30,      28
      15,      29,      31,      32,      30
      16,      31,      33,      34,      32
      17,      33,      35,      36,      34
      18,      35,      37,      38,      36
      19,      37,      39,      40,      38
      20,      39,      41,      42,      40
** ... 55 like lines cut
**
********************************** S I D E S E T S **********************************
*ELSET, ELSET=SS1_E2
      25,      50,      75
*SURFACE, NAME=SS1
SS1_E2, E2
**
********************************** P R O P E R T I E S ************************
*SHELL SECTION, ELSET=EB1, SECTION INTEGRATION=SIMPSON, MATERIAL=Default-Steel
1.000000e+00
**
*END PART
**
**
**
********************************** E N D   P A R T S **********************************
**
**
********************************** A S S E M B L Y ************************************
**
*ASSEMBLY, NAME=ASSEMBLY1
**
*INSTANCE, NAME=Part-Default_1, PART=Part-Default
*END INSTANCE
**
*END ASSEMBLY
**
**
**
*MATERIAL, NAME = Default-Steel
*ELASTIC, TYPE=ISOTROPIC
2.068000e+05, 2.900000e-01
*DENSITY
7.000000e-06
*CONDUCTIVITY,TYPE=ISO
4.500000e-02
*SPECIFIC HEAT
5.000000e+02
**
**
************************************** H I S T O R Y *************************************
**
*PREPRINT
**
**************************************** S T E P 1 ***************************************
*STEP,INC=100,NAME=Default Set
**
*STATIC
1, 1, 1e-05, 1
**
**
**
**
*END STEP
