*HEADING
cubit(er-Thesis/MSP_toroidal_membrane/mesh/crisfield_beam_2.inp): 02/14/2019: 14
version: 13.1
**
********************************** P A R T S **********************************
*PART, NAME=Part-Default
**
********************************** N O D E S **********************************
*NODE, NSET=ALLNODES
       1,    0.000000e+00,    1.010000e+02
       2,    2.115176e+00,    1.009778e+02
       3,    2.136119e+00,    1.019776e+02
       4,    0.000000e+00,    1.020000e+02
       5,    0.000000e+00,    1.000000e+02
       6,    2.094233e+00,    9.997807e+01
       7,    4.229424e+00,    1.009114e+02
       8,    4.271300e+00,    1.019105e+02
       9,    4.187547e+00,    9.991228e+01
      10,    6.341816e+00,    1.008007e+02
      11,    6.404609e+00,    1.017987e+02
      12,    6.279024e+00,    9.980267e+01
      13,    8.451428e+00,    1.006458e+02
      14,    8.535107e+00,    1.016423e+02
      15,    8.367748e+00,    9.964929e+01
      16,    1.055733e+01,    1.004467e+02
      17,    1.066186e+01,    1.014412e+02
      18,    1.045280e+01,    9.945219e+01
      19,    1.265860e+01,    1.002036e+02
      20,    1.278394e+01,    1.011957e+02
** ... 84 like lines cut
**
********************************** E L E M E N T S ****************************
*ELEMENT, TYPE=S4R, ELSET=EB1
       1,       1,       2,       3,       4
       2,       5,       6,       2,       1
       3,       2,       7,       8,       3
       4,       6,       9,       7,       2
       5,       7,      10,      11,       8
       6,       9,      12,      10,       7
       7,      10,      13,      14,      11
       8,      12,      15,      13,      10
       9,      13,      16,      17,      14
      10,      15,      18,      16,      13
      11,      16,      19,      20,      17
      12,      18,      21,      19,      16
      13,      19,      22,      23,      20
      14,      21,      24,      22,      19
      15,      22,      25,      26,      23
      16,      24,      27,      25,      22
      17,      25,      28,      29,      26
      18,      27,      30,      28,      25
      19,      28,      31,      32,      29
      20,      30,      33,      31,      28
** ... 43 like lines cut
*ELEMENT, TYPE=S4R, ELSET=EB2
      64,      35,      38,      92,      93
      65,      32,      35,      93,      94
      66,      29,      32,      94,      95
      67,      26,      29,      95,      96
      68,      23,      26,      96,      97
      69,      20,      23,      97,      98
      70,      17,      20,      98,      99
      71,      14,      17,      99,     100
      72,      11,      14,     100,     101
      73,       8,      11,     101,     102
      74,       3,       8,     102,     103
      75,       4,       3,     103,     104
**
********************************** S I D E S E T S **********************************
*ELSET, ELSET=SS1_E2
      49,      50,      51
*SURFACE, NAME=SS1
SS1_E2, E2
**
********************************** P R O P E R T I E S ************************
*SHELL SECTION, ELSET=EB1, SECTION INTEGRATION=SIMPSON, MATERIAL=Default-Steel
1.000000e+00
*SHELL SECTION, ELSET=EB2, SECTION INTEGRATION=SIMPSON, MATERIAL=Default-Steel
1.000000e+00
**
*END PART
**
**
**
********************************** E N D   P A R T S **********************************
**
**
********************************** A S S E M B L Y ************************************
**
*ASSEMBLY, NAME=ASSEMBLY1
**
*INSTANCE, NAME=Part-Default_1, PART=Part-Default
*END INSTANCE
**
*END ASSEMBLY
**
**
**
*MATERIAL, NAME = Default-Steel
*ELASTIC, TYPE=ISOTROPIC
2.068000e+05, 2.900000e-01
*DENSITY
7.000000e-06
*CONDUCTIVITY,TYPE=ISO
4.500000e-02
*SPECIFIC HEAT
5.000000e+02
**
**
************************************** H I S T O R Y *************************************
**
*PREPRINT
**
**************************************** S T E P 1 ***************************************
*STEP,INC=100,NAME=Default Set
**
*STATIC
1, 1, 1e-05, 1
**
**
**
**
*END STEP
