*HEADING
cubit(r-Thesis/MSP_toroidal_membrane/mesh/new_2d_inc_radius.inp): 10/19/2018: 13
version: 13.1
**
********************************** P A R T S **********************************
*PART, NAME=Part-Default
**
********************************** N O D E S **********************************
*NODE, NSET=ALLNODES
       1,    7.500000e-01,   -1.936492e-01
       2,    7.500000e-01,   -1.884808e-01
       3,    7.335422e-01,   -1.920935e-01
       4,    7.335316e-01,   -1.971690e-01
       5,    7.168339e-01,   -1.942720e-01
       6,    7.168254e-01,   -1.992910e-01
       7,    7.000000e-01,   -1.950000e-01
       8,    7.000000e-01,   -2.000000e-01
       9,    6.831661e-01,   -1.942720e-01
      10,    6.831746e-01,   -1.992910e-01
      11,    6.664578e-01,   -1.920935e-01
      12,    6.664684e-01,   -1.971690e-01
      13,    6.500000e-01,   -1.884808e-01
      14,    6.500000e-01,   -1.936492e-01
      15,    6.178833e-01,   -1.768667e-01
      16,    6.165799e-01,   -1.817721e-01
      17,    5.882854e-01,   -1.598275e-01
      18,    5.857832e-01,   -1.641784e-01
      19,    5.621142e-01,   -1.378858e-01
      20,    5.585786e-01,   -1.414214e-01
** ... 2989 like lines cut
**
********************************** E L E M E N T S ****************************
*ELEMENT, TYPE=S4R, ELSET=EB1
       1,       1,       2,       3,       4
       2,       4,       3,       5,       6
       3,       6,       5,       7,       8
       4,       8,       7,       9,      10
       5,      10,       9,      11,      12
       6,      12,      11,      13,      14
       7,      14,      13,      15,      16
       8,      16,      15,      17,      18
       9,      18,      17,      19,      20
      10,       2,       1,      21,      22
      11,      22,      21,      23,      24
      12,      24,      23,      25,      26
      13,      27,      28,      29,      30
      14,      30,      29,      31,      32
      15,      32,      31,      20,      19
      16,      28,      27,      33,      34
      17,      34,      33,      35,      36
      18,      36,      35,      37,      38
      19,      38,      37,      39,      40
      20,      40,      39,      41,      42
** ... 28 like lines cut
*ELEMENT, TYPE=S4R, ELSET=EB2
      49,      97,      98,      99,     100
      50,      98,     101,     102,      99
      51,     101,     103,     104,     102
      52,     103,     105,     106,     104
      53,     105,     107,     108,     106
      54,     107,      75,      78,     108
      55,     100,      99,     109,     110
      56,      99,     102,     111,     109
      57,     102,     104,     112,     111
      58,     104,     106,     113,     112
      59,     106,     108,     114,     113
      60,     108,      78,      80,     114
      61,     110,     109,     115,     116
      62,     109,     111,     117,     115
      63,     111,     112,     118,     117
      64,     112,     113,     119,     118
      65,     113,     114,     120,     119
      66,     114,      80,      73,     120
      67,     121,     122,     123,     124
      68,     122,     125,     126,     123
** ... 2844 like lines cut
**
********************************** P R O P E R T I E S ************************
*SHELL SECTION, ELSET=EB1, SECTION INTEGRATION=SIMPSON, MATERIAL=Default-Steel
1.000000e+00
*SHELL SECTION, ELSET=EB2, SECTION INTEGRATION=SIMPSON, MATERIAL=Default-Steel
1.000000e+00
**
*END PART
**
**
**
********************************** E N D   P A R T S **********************************
**
**
********************************** A S S E M B L Y ************************************
**
*ASSEMBLY, NAME=ASSEMBLY1
**
*INSTANCE, NAME=Part-Default_1, PART=Part-Default
*END INSTANCE
**
*END ASSEMBLY
**
**
**
*MATERIAL, NAME = Default-Steel
*ELASTIC, TYPE=ISOTROPIC
2.068000e+05, 2.900000e-01
*DENSITY
7.000000e-06
*CONDUCTIVITY,TYPE=ISO
4.500000e-02
*SPECIFIC HEAT
5.000000e+02
**
**
************************************** H I S T O R Y *************************************
**
*PREPRINT
**
**************************************** S T E P 1 ***************************************
*STEP,INC=100,NAME=Default Set
**
*STATIC
1, 1, 1e-05, 1
**
**
**
**
*END STEP
