*HEADING
cubit(hesis/MSP_toroidal_membrane/mesh/new_crisfield_beam_3.inp): 02/14/2019: 14
version: 13.1
**
********************************** P A R T S **********************************
*PART, NAME=Part-Default
**
********************************** N O D E S **********************************
*NODE, NSET=ALLNODES
       1,    0.000000e+00,    1.003333e+02
       2,    3.151546e+00,    1.002838e+02
       3,    3.162016e+00,    1.006170e+02
       4,    0.000000e+00,    1.006667e+02
       5,    0.000000e+00,    1.000000e+02
       6,    3.141076e+00,    9.995066e+01
       7,    6.299982e+00,    1.001353e+02
       8,    6.320912e+00,    1.004680e+02
       9,    6.279052e+00,    9.980267e+01
      10,    9.442201e+00,    9.988805e+01
      11,    9.473570e+00,    1.002199e+02
      12,    9.410831e+00,    9.955620e+01
      13,    1.257510e+01,    9.954218e+01
      14,    1.261688e+01,    9.987288e+01
      15,    1.253332e+01,    9.921147e+01
      16,    1.569559e+01,    9.909806e+01
      17,    1.574774e+01,    9.942729e+01
      18,    1.564345e+01,    9.876883e+01
      19,    1.880059e+01,    9.855615e+01
      20,    1.886305e+01,    9.888358e+01
** ... 84 like lines cut
**
********************************** E L E M E N T S ****************************
*ELEMENT, TYPE=S4R, ELSET=EB1
       1,       1,       2,       3,       4
       2,       5,       6,       2,       1
       3,       2,       7,       8,       3
       4,       6,       9,       7,       2
       5,       7,      10,      11,       8
       6,       9,      12,      10,       7
       7,      10,      13,      14,      11
       8,      12,      15,      13,      10
       9,      13,      16,      17,      14
      10,      15,      18,      16,      13
      11,      16,      19,      20,      17
      12,      18,      21,      19,      16
      13,      19,      22,      23,      20
      14,      21,      24,      22,      19
      15,      24,      25,      26,      22
      16,      22,      26,      27,      23
      17,      25,      28,      29,      26
      18,      26,      29,      30,      27
      19,      28,      31,      32,      29
      20,      29,      32,      33,      30
** ... 43 like lines cut
*ELEMENT, TYPE=S4R, ELSET=EB2
      64,      36,      39,      92,      93
      65,      33,      36,      93,      94
      66,      30,      33,      94,      95
      67,      27,      30,      95,      96
      68,      23,      27,      96,      97
      69,      20,      23,      97,      98
      70,      17,      20,      98,      99
      71,      14,      17,      99,     100
      72,      11,      14,     100,     101
      73,       8,      11,     101,     102
      74,       3,       8,     102,     103
      75,       4,       3,     103,     104
**
********************************** S I D E S E T S **********************************
*ELSET, ELSET=SS1_E2
      49,      50,      51
*SURFACE, NAME=SS1
SS1_E2, E2
**
********************************** P R O P E R T I E S ************************
*SHELL SECTION, ELSET=EB1, SECTION INTEGRATION=SIMPSON, MATERIAL=Default-Steel
1.000000e+00
*SHELL SECTION, ELSET=EB2, SECTION INTEGRATION=SIMPSON, MATERIAL=Default-Steel
1.000000e+00
**
*END PART
**
**
**
********************************** E N D   P A R T S **********************************
**
**
********************************** A S S E M B L Y ************************************
**
*ASSEMBLY, NAME=ASSEMBLY1
**
*INSTANCE, NAME=Part-Default_1, PART=Part-Default
*END INSTANCE
**
*END ASSEMBLY
**
**
**
*MATERIAL, NAME = Default-Steel
*ELASTIC, TYPE=ISOTROPIC
2.068000e+05, 2.900000e-01
*DENSITY
7.000000e-06
*CONDUCTIVITY,TYPE=ISO
4.500000e-02
*SPECIFIC HEAT
5.000000e+02
**
**
************************************** H I S T O R Y *************************************
**
*PREPRINT
**
**************************************** S T E P 1 ***************************************
*STEP,INC=100,NAME=Default Set
**
*STATIC
1, 1, 1e-05, 1
**
**
**
**
*END STEP
