*HEADING
cubit(hesis/MSP_toroidal_membrane/mesh/new_hooped_beam_mesh.inp): 02/13/2019: 13
version: 13.1
**
********************************** P A R T S **********************************
*PART, NAME=Part-Default
**
********************************** N O D E S **********************************
*NODE, NSET=ALLNODES
       1,    0.000000e+00,    2.700000e-01
       2,    0.000000e+00,    3.033333e-01
       3,    6.250000e-02,    3.033333e-01
       4,    6.250000e-02,    2.700000e-01
       5,    0.000000e+00,    3.366667e-01
       6,    6.250000e-02,    3.366667e-01
       7,    0.000000e+00,    3.700000e-01
       8,    6.250000e-02,    3.700000e-01
       9,    1.250000e-01,    3.033333e-01
      10,    1.250000e-01,    2.700000e-01
      11,    1.250000e-01,    3.366667e-01
      12,    1.250000e-01,    3.700000e-01
      13,    1.875000e-01,    3.033333e-01
      14,    1.875000e-01,    2.700000e-01
      15,    1.875000e-01,    3.366667e-01
      16,    1.875000e-01,    3.700000e-01
      17,    2.500000e-01,    3.033333e-01
      18,    2.500000e-01,    2.700000e-01
      19,    2.500000e-01,    3.366667e-01
      20,    2.500000e-01,    3.700000e-01
** ... 136 like lines cut
**
********************************** E L E M E N T S ****************************
*ELEMENT, TYPE=S4R, ELSET=EB1
       1,       3,       2,       1,       4
       2,       6,       5,       2,       3
       3,       8,       7,       5,       6
       4,       9,       3,       4,      10
       5,      11,       6,       3,       9
       6,      12,       8,       6,      11
       7,      13,       9,      10,      14
       8,      15,      11,       9,      13
       9,      16,      12,      11,      15
      10,      17,      13,      14,      18
      11,      19,      15,      13,      17
      12,      20,      16,      15,      19
      13,      21,      17,      18,      22
      14,      23,      19,      17,      21
      15,      24,      20,      19,      23
      16,      25,      21,      22,      26
      17,      27,      23,      21,      25
      18,      28,      24,      23,      27
      19,      29,      25,      26,      30
      20,      31,      27,      25,      29
** ... 94 like lines cut
**
********************************** P R O P E R T I E S ************************
*SHELL SECTION, ELSET=EB1, SECTION INTEGRATION=SIMPSON, MATERIAL=Default-Steel
1.000000e+00
**
*END PART
**
**
**
********************************** E N D   P A R T S **********************************
**
**
********************************** A S S E M B L Y ************************************
**
*ASSEMBLY, NAME=ASSEMBLY1
**
*INSTANCE, NAME=Part-Default_1, PART=Part-Default
*END INSTANCE
**
*END ASSEMBLY
**
**
**
*MATERIAL, NAME = Default-Steel
*ELASTIC, TYPE=ISOTROPIC
2.068000e+05, 2.900000e-01
*DENSITY
7.000000e-06
*CONDUCTIVITY,TYPE=ISO
4.500000e-02
*SPECIFIC HEAT
5.000000e+02
**
**
************************************** H I S T O R Y *************************************
**
*PREPRINT
**
**************************************** S T E P 1 ***************************************
*STEP,INC=100,NAME=Default Set
**
*STATIC
1, 1, 1e-05, 1
**
**
**
**
*END STEP
