*HEADING
cubit(hesis/MSP_toroidal_membrane/mesh/new_crisfield_beam_2.inp): 02/14/2019: 14
version: 13.1
**
********************************** P A R T S **********************************
*PART, NAME=Part-Default
**
********************************** N O D E S **********************************
*NODE, NSET=ALLNODES
       1,    2.101220e+00,    1.003113e+02
       2,    0.000000e+00,    1.003333e+02
       3,    0.000000e+00,    1.006667e+02
       4,    2.108201e+00,    1.006446e+02
       5,    2.094239e+00,    9.997807e+01
       6,    0.000000e+00,    1.000000e+02
       7,    4.201518e+00,    1.002453e+02
       8,    4.215477e+00,    1.005784e+02
       9,    4.187559e+00,    9.991228e+01
      10,    6.299973e+00,    1.001353e+02
      11,    6.320904e+00,    1.004680e+02
      12,    6.279042e+00,    9.980267e+01
      13,    8.395665e+00,    9.998145e+01
      14,    8.423558e+00,    1.003136e+02
      15,    8.367772e+00,    9.964929e+01
      16,    1.048767e+01,    9.978370e+01
      17,    1.052252e+01,    1.001152e+02
      18,    1.045283e+01,    9.945219e+01
      19,    1.257508e+01,    9.954218e+01
      20,    1.261686e+01,    9.987288e+01
** ... 84 like lines cut
**
********************************** E L E M E N T S ****************************
*ELEMENT, TYPE=S4R, ELSET=EB1
       1,       3,       2,       1,       4
       2,       2,       6,       5,       1
       3,       4,       1,       7,       8
       4,       1,       5,       9,       7
       5,       8,       7,      10,      11
       6,       7,       9,      12,      10
       7,      11,      10,      13,      14
       8,      10,      12,      15,      13
       9,      14,      13,      16,      17
      10,      13,      15,      18,      16
      11,      17,      16,      19,      20
      12,      16,      18,      21,      19
      13,      19,      21,      22,      23
      14,      20,      19,      23,      24
      15,      24,      23,      25,      26
      16,      23,      22,      27,      25
      17,      26,      25,      28,      29
      18,      25,      27,      30,      28
      19,      29,      28,      31,      32
      20,      28,      30,      33,      31
** ... 43 like lines cut
*ELEMENT, TYPE=S4R, ELSET=EB2
      64,      93,      35,      38,      92
      65,      94,      32,      35,      93
      66,      95,      29,      32,      94
      67,      96,      26,      29,      95
      68,      97,      24,      26,      96
      69,      98,      20,      24,      97
      70,      99,      17,      20,      98
      71,     100,      14,      17,      99
      72,     101,      11,      14,     100
      73,     102,       8,      11,     101
      74,     103,       4,       8,     102
      75,     104,       3,       4,     103
**
********************************** S I D E S E T S **********************************
*ELSET, ELSET=SS1_E3
      49,      50,      51
*SURFACE, NAME=SS1
SS1_E3, E3
**
********************************** P R O P E R T I E S ************************
*SHELL SECTION, ELSET=EB1, SECTION INTEGRATION=SIMPSON, MATERIAL=Default-Steel
1.000000e+00
*SHELL SECTION, ELSET=EB2, SECTION INTEGRATION=SIMPSON, MATERIAL=Default-Steel
1.000000e+00
**
*END PART
**
**
**
********************************** E N D   P A R T S **********************************
**
**
********************************** A S S E M B L Y ************************************
**
*ASSEMBLY, NAME=ASSEMBLY1
**
*INSTANCE, NAME=Part-Default_1, PART=Part-Default
*END INSTANCE
**
*END ASSEMBLY
**
**
**
*MATERIAL, NAME = Default-Steel
*ELASTIC, TYPE=ISOTROPIC
2.068000e+05, 2.900000e-01
*DENSITY
7.000000e-06
*CONDUCTIVITY,TYPE=ISO
4.500000e-02
*SPECIFIC HEAT
5.000000e+02
**
**
************************************** H I S T O R Y *************************************
**
*PREPRINT
**
**************************************** S T E P 1 ***************************************
*STEP,INC=100,NAME=Default Set
**
*STATIC
1, 1, 1e-05, 1
**
**
**
**
*END STEP
