*HEADING
cubit(s/MSP_toroidal_membrane/mesh/slender_hooped_beam_mesh.inp): 12/07/2018: 12
version: 13.1
**
********************************** P A R T S **********************************
*PART, NAME=Part-Default
**
********************************** N O D E S **********************************
*NODE, NSET=ALLNODES
       1,    2.000000e+00,    0.000000e+00
       2,    1.875000e+00,    2.500000e-02
       3,    1.875000e+00,    7.500000e-02
       4,    2.000000e+00,    5.000000e-02
       5,    1.750000e+00,    5.000000e-02
       6,    1.750000e+00,    1.000000e-01
       7,    1.625000e+00,    7.500000e-02
       8,    1.625000e+00,    1.250000e-01
       9,    1.500000e+00,    1.000000e-01
      10,    1.500000e+00,    1.500000e-01
      11,    1.375000e+00,    1.500000e-01
      12,    1.375000e+00,    2.000000e-01
      13,    1.250000e+00,    2.000000e-01
      14,    1.250000e+00,    2.500000e-01
      15,    1.125000e+00,    2.250000e-01
      16,    1.125000e+00,    2.750000e-01
      17,    1.000000e+00,    2.500000e-01
      18,    1.000000e+00,    3.000000e-01
      19,    8.750000e-01,    2.625000e-01
      20,    8.750000e-01,    3.125000e-01
** ... 100 like lines cut
**
********************************** E L E M E N T S ****************************
*ELEMENT, TYPE=S4R, ELSET=EB1
       1,       3,       2,       1,       4
       2,       6,       5,       2,       3
       3,       8,       7,       5,       6
       4,      10,       9,       7,       8
       5,      12,      11,       9,      10
       6,      14,      13,      11,      12
       7,      16,      15,      13,      14
       8,      18,      17,      15,      16
       9,      20,      19,      17,      18
      10,      22,      21,      19,      20
      11,      24,      23,      21,      22
      12,      26,      25,      23,      24
      13,      28,      27,      25,      26
      14,      30,      29,      27,      28
      15,      32,      31,      29,      30
      16,      34,      33,      31,      32
      17,      36,      35,      33,      34
      18,      38,      37,      35,      36
      19,      40,      39,      37,      38
      20,      41,       3,       4,      42
** ... 75 like lines cut
**
********************************** P R O P E R T I E S ************************
*SHELL SECTION, ELSET=EB1, SECTION INTEGRATION=SIMPSON, MATERIAL=Default-Steel
1.000000e+00
**
*END PART
**
**
**
********************************** E N D   P A R T S **********************************
**
**
********************************** A S S E M B L Y ************************************
**
*ASSEMBLY, NAME=ASSEMBLY1
**
*INSTANCE, NAME=Part-Default_1, PART=Part-Default
*END INSTANCE
**
*END ASSEMBLY
**
**
**
*MATERIAL, NAME = Default-Steel
*ELASTIC, TYPE=ISOTROPIC
2.068000e+05, 2.900000e-01
*DENSITY
7.000000e-06
*CONDUCTIVITY,TYPE=ISO
4.500000e-02
*SPECIFIC HEAT
5.000000e+02
**
**
************************************** H I S T O R Y *************************************
**
*PREPRINT
**
**************************************** S T E P 1 ***************************************
*STEP,INC=100,NAME=Default Set
**
*STATIC
1, 1, 1e-05, 1
**
**
**
**
*END STEP
