*HEADING
cubit(ostatics/MSP_toroidal_membrane/mesh/toroidal_membrane.inp): 04/13/2018: 19
version: 13.2
**
********************************** P A R T S **********************************
*PART, NAME=Part-Default
**
********************************** N O D E S **********************************
*NODE, NSET=ALLNODES
       1,    8.000000e-01,   -3.000000e-01
       2,    8.000000e-01,   -3.820602e-01
       3,    8.733304e-01,   -3.820602e-01
       4,    8.733304e-01,   -3.000000e-01
       5,    8.000000e-01,   -4.723265e-01
       6,    8.733304e-01,   -4.723265e-01
       7,    8.000000e-01,   -5.716194e-01
       8,    8.733304e-01,   -5.716194e-01
       9,    8.000000e-01,   -6.808416e-01
      10,    8.733304e-01,   -6.808416e-01
      11,    8.000000e-01,   -8.009859e-01
      12,    8.733304e-01,   -8.009859e-01
      13,    8.000000e-01,   -9.331448e-01
      14,    8.733304e-01,   -9.331448e-01
      15,    8.000000e-01,   -1.078519e+00
      16,    8.733304e-01,   -1.078519e+00
      17,    8.000000e-01,   -1.238432e+00
      18,    8.733304e-01,   -1.238432e+00
      19,    8.000000e-01,   -1.414335e+00
      20,    8.733304e-01,   -1.414335e+00
** ... 1770 like lines cut
**
********************************** E L E M E N T S ****************************
*ELEMENT, TYPE=S4R, ELSET=EB39
       1,       1,       2,       3,       4
       2,       2,       5,       6,       3
       3,       5,       7,       8,       6
       4,       7,       9,      10,       8
       5,       9,      11,      12,      10
       6,      11,      13,      14,      12
       7,      13,      15,      16,      14
       8,      15,      17,      18,      16
       9,      17,      19,      20,      18
      10,      19,      21,      22,      20
      11,      21,      23,      24,      22
      12,      23,      25,      26,      24
      13,      25,      27,      28,      26
      14,      27,      29,      30,      28
      15,      29,      31,      32,      30
      16,      31,      33,      34,      32
      17,      33,      35,      36,      34
      18,      35,      37,      38,      36
      19,      37,      39,      40,      38
      20,      39,      41,      42,      40
** ... 1690 like lines cut
**
********************************** P R O P E R T I E S ************************
*SHELL SECTION, ELSET=EB39, SECTION INTEGRATION=SIMPSON, MATERIAL=Default-Steel
1.000000e+00
**
*END PART
**
**
**
********************************** E N D   P A R T S **********************************
**
**
********************************** A S S E M B L Y ************************************
**
*ASSEMBLY, NAME=ASSEMBLY1
**
*INSTANCE, NAME=Part-Default_1, PART=Part-Default
*END INSTANCE
**
*END ASSEMBLY
**
**
**
*MATERIAL, NAME = Default-Steel
*ELASTIC, TYPE=ISOTROPIC
2.068000e+05, 2.900000e-01
*DENSITY
7.000000e-06
*CONDUCTIVITY,TYPE=ISO
4.500000e-02
*SPECIFIC HEAT
5.000000e+02
**
**
************************************** H I S T O R Y *************************************
**
*PREPRINT
**
**************************************** S T E P 1 ***************************************
*STEP,INC=100,NAME=Default Set
**
*STATIC
1, 1, 1e-05, 1
**
**
**
**
*END STEP
